 #Pb Ti O
 CRYSTAL
 PRIMVEC
    8.00000000   0.00000000   0.00000000
    0.00000000   8.00000000   0.00000000
    0.00000000   0.00000000   8.00000000
 CONVVEC
    8.00000000   0.00000000   0.00000000
    0.00000000   8.00000000   0.00000000
    0.00000000   0.00000000   8.00000000
 PRIMCOORD
          40 1
    83   4.28867531   0.28867510   0.28867510   0.33221447   0.34216129   0.33292345
    83   0.28867510   4.28867531   0.28867510   0.33221425   0.34216155   0.33292345
    83   0.28867510   0.28867510   4.28867531   0.33221425   0.34216129   0.33292366
    83   4.28867531   4.28867531   4.28867531   0.33221447   0.34216155   0.33292366
    83  -0.28867510  -0.28867510  -0.28867510  -0.37881420  -0.36886715  -0.37810499
    83   3.71132493   3.71132493  -0.28867510  -0.37881419  -0.36886711  -0.37810499
    83   3.71132493  -0.28867510   3.71132493  -0.37881419  -0.36886715  -0.37810500
    83  -0.28867510   3.71132493   3.71132493  -0.37881420  -0.36886711  -0.37810500
    26   6.00000000   2.00000000   2.00000000  -0.02012705   0.00000000   0.00000000
    26   2.00000000   6.00000000   2.00000000  -0.02012701   0.00000000   0.00000000
    26   2.00000000   2.00000000   6.00000000  -0.02012701   0.00000000   0.00000000
    26   6.00000000   6.00000000   6.00000000  -0.02012705   0.00000000   0.00000000
    22   2.00000000   2.00000000   2.00000000  -0.03395544   0.00000000   0.00000000
    22   6.00000000   6.00000000   2.00000000  -0.03395551   0.00000000   0.00000000
    22   6.00000000   2.00000000   6.00000000  -0.03395551   0.00000000   0.00000000
    22   2.00000000   6.00000000   6.00000000  -0.03395544   0.00000000   0.00000000
     8   1.97720873   2.01783586   0.02682770   0.00000000   0.00000000   0.00000000
     8   5.97720861   2.01783586   0.02682770   0.00000000   0.00000000   0.00000000
     8   1.97720873   6.01783562   0.02682770   0.00000000   0.00000000   0.00000000
     8   5.97720861   6.01783562   0.02682770   0.00000000   0.00000000   0.00000000
     8   1.97720873   2.01783586   4.02682781   0.00000000   0.00000000   0.00000000
     8   5.97720861   2.01783586   4.02682781   0.00000000   0.00000000   0.00000000
     8   1.97720873   6.01783562   4.02682781   0.00000000   0.00000000   0.00000000
     8   5.97720861   6.01783562   4.02682781   0.00000000   0.00000000   0.00000000
     8   2.03224397  -0.02186320   1.98472250   0.00000000   0.00000000   0.00000000
     8   6.03224421  -0.02186320   1.98472250   0.00000000   0.00000000   0.00000000
     8   2.03224397   3.97813678   1.98472250   0.00000000   0.00000000   0.00000000
     8   6.03224421   3.97813678   1.98472250   0.00000000   0.00000000   0.00000000
     8   2.03224397  -0.02186320   5.98472261   0.00000000   0.00000000   0.00000000
     8   6.03224421  -0.02186320   5.98472261   0.00000000   0.00000000   0.00000000
     8   2.03224397   3.97813678   5.98472261   0.00000000   0.00000000   0.00000000
     8   6.03224421   3.97813678   5.98472261   0.00000000   0.00000000   0.00000000
     8   0.04730550   2.03655505   2.04348040   0.00000000   0.00000000   0.00000000
     8   4.04730558   2.03655505   2.04348040   0.00000000   0.00000000   0.00000000
     8   0.04730550   6.03655481   2.04348040   0.00000000   0.00000000   0.00000000
     8   4.04730558   6.03655481   2.04348040   0.00000000   0.00000000   0.00000000
     8   0.04730550   2.03655505   6.04348040   0.00000000   0.00000000   0.00000000
     8   4.04730558   2.03655505   6.04348040   0.00000000   0.00000000   0.00000000
     8   0.04730550   6.03655481   6.04348040   0.00000000   0.00000000   0.00000000
     8   4.04730558   6.03655481   6.04348040   0.00000000   0.00000000   0.00000000
