 #Pb Ti O
 CRYSTAL
 PRIMVEC
    7.78293500   0.00000000   0.00000000
    0.00000000   7.78293500   0.00000000
    0.00000000   0.00000000   7.78293500
 CONVVEC
    7.78293500   0.00000000   0.00000000
    0.00000000   7.78293500   0.00000000
    0.00000000   0.00000000   7.78293500
 PRIMCOORD
          40 1
    82   0.28267403   0.28379232   0.28261851   0.41741282   0.41689358   0.41730651
    82   4.17429702   0.28416787   0.28199917   0.41763418   0.41739107   0.41647272
    82   0.28246133   4.17578614   0.28302712   0.41710363   0.41771804   0.41778401
    82   4.17431558   4.17582604   0.28249888   0.41763429   0.41776659   0.41707206
    82   0.28269807   0.28414172   4.17352649   0.41744994   0.41736422   0.41655351
    82   4.17421120   0.28378617   4.17412306   0.41752436   0.41688387   0.41734597
    82   0.28283912   4.17593366   4.17382385   0.41761388   0.41791866   0.41688222
    82   4.17389807   4.17582743   4.17446960   0.41708084   0.41777177   0.41774045
    22   2.05090199   2.05210140   2.05041953   0.15542687   0.15530345   0.15529438
    22   5.94212919   2.05210790   2.05057100   0.15536617   0.15520966   0.15538744
    22   2.05102353   5.94378949   2.05092797   0.15542702   0.15542819   0.15512874
    22   5.94203455   5.94387763   2.05110518   0.15512192   0.15547825   0.15523535
    22   2.05058631   2.05211949   5.94197935   0.15533321   0.15522889   0.15538932
    22   5.94236346   2.05220462   5.94189260   0.15545831   0.15530518   0.15525249
    22   2.05054131   5.94388644   5.94255319   0.15513050   0.15550156   0.15526822
    22   5.94248825   5.94375516   5.94247526   0.15545713   0.15537734   0.15512539
     8   1.60751955   2.15692520   0.03899396   0.00000000   0.00000000   0.00000000
     8   6.04756928   1.60968607   0.03898644   0.00000000   0.00000000   0.00000000
     8   2.15504200   5.50147378   0.03961913   0.00000000   0.00000000   0.00000000
     8   5.50067077   6.04853558   0.03966597   0.00000000   0.00000000   0.00000000
     8   2.15607371   1.60934313   3.93044616   0.00000000   0.00000000   0.00000000
     8   5.49901697   2.15686164   3.93051064   0.00000000   0.00000000   0.00000000
     8   1.60916500   6.04871279   3.93106314   0.00000000   0.00000000   0.00000000
     8   6.04650138   5.50167325   3.93115731   0.00000000   0.00000000   0.00000000
     8   2.15574596   0.04084065   1.60809791   0.00000000   0.00000000   0.00000000
     8   5.49963163   0.04098985   2.15557873   0.00000000   0.00000000   0.00000000
     8   1.60879712   3.93206099   2.15574086   0.00000000   0.00000000   0.00000000
     8   6.04666189   3.93215841   1.60862861   0.00000000   0.00000000   0.00000000
     8   1.60799852   0.04098013   6.04714202   0.00000000   0.00000000   0.00000000
     8   6.04719073   0.04089461   5.49992343   0.00000000   0.00000000   0.00000000
     8   2.15521828   3.93217696   5.49981998   0.00000000   0.00000000   0.00000000
     8   5.50011131   3.93209764   6.04717171   0.00000000   0.00000000   0.00000000
     8   0.03932988   1.60988033   2.15566385   0.00000000   0.00000000   0.00000000
     8   3.93077367   2.15702702   1.60709044   0.00000000   0.00000000   0.00000000
     8   0.03933421   6.04819276   1.60974661   0.00000000   0.00000000   0.00000000
     8   3.93088408   5.50134203   2.15567638   0.00000000   0.00000000   0.00000000
     8   0.03929624   2.15720029   5.49847606   0.00000000   0.00000000   0.00000000
     8   3.93072589   1.60994736   6.04708589   0.00000000   0.00000000   0.00000000
     8   0.03943228   5.50123997   6.04715455   0.00000000   0.00000000   0.00000000
     8   3.93075882   6.04824007   5.50123719   0.00000000   0.00000000   0.00000000
